<?xml version="1.0" encoding="UTF-8"?>

<!-- generated on Friday 28 May 2021 01:57:17 PM by Eclipse SUMO netedit Version 1.4.0
<configuration xmlns:xsi="http://www.w3.org/2001/XMLSchema-instance" xsi:noNamespaceSchemaLocation="http://sumo.dlr.de/xsd/netconvertConfiguration.xsd">

    <output>
        <output-file value="/home/abou/Desktop/Python%20Projects/demo_network.net.xml"/>
    </output>

    <processing>
        <offset.disable-normalization value="true"/>
    </processing>

    <junctions>
        <no-turnarounds value="true"/>
    </junctions>

    <report>
        <aggregate-warnings value="5"/>
    </report>

</configuration>
-->

<net version="1.3" junctionCornerDetail="5" limitTurnSpeed="5.50" xmlns:xsi="http://www.w3.org/2001/XMLSchema-instance" xsi:noNamespaceSchemaLocation="http://sumo.dlr.de/xsd/net_file.xsd">

    <location netOffset="0.00,0.00" convBoundary="-1100.00,0.00,-500.00,300.00" origBoundary="10000000000.00,10000000000.00,-10000000000.00,-10000000000.00" projParameter="!"/>

    <edge id=":gneJ0_0" function="internal">
        <lane id=":gneJ0_0_0" index="0" speed="6.80" length="13.49" shape="-1095.20,289.22 -1094.52,291.77 -1092.48,292.81 -1089.09,292.34 -1084.34,290.38"/>
    </edge>
    <edge id=":gneJ0_1" function="internal">
        <lane id=":gneJ0_1_0" index="0" speed="8.17" length="14.82" shape="-1095.20,289.22 -1094.45,291.84 -1092.20,293.71 -1088.45,294.83 -1083.20,295.20"/>
    </edge>
    <edge id=":gneJ0_2" function="internal">
        <lane id=":gneJ0_2_0" index="0" speed="9.38" length="19.90" shape="-1098.40,289.22 -1097.45,293.24 -1094.60,296.11 -1089.85,297.83 -1083.20,298.40"/>
    </edge>
    <edge id=":gneJ1_0" function="internal">
        <lane id=":gneJ1_0_0" index="0" speed="6.51" length="9.03" shape="-907.20,295.20 -904.75,294.85 -903.00,293.80 -901.95,292.05 -901.60,289.60"/>
    </edge>
    <edge id=":gneJ1_1" function="internal">
        <lane id=":gneJ1_1_0" index="0" speed="13.89" length="11.20" shape="-907.20,295.20 -896.00,295.20"/>
        <lane id=":gneJ1_1_1" index="1" speed="13.89" length="11.20" shape="-907.20,298.40 -896.00,298.40"/>
    </edge>
    <edge id=":gneJ11_0" function="internal">
        <lane id=":gneJ11_0_0" index="0" speed="13.89" length="12.80" shape="-901.60,205.60 -901.60,192.80"/>
    </edge>
    <edge id=":gneJ11_1" function="internal">
        <lane id=":gneJ11_1_0" index="0" speed="8.55" length="4.32" shape="-901.60,205.60 -900.80,202.45 -900.02,201.72"/>
    </edge>
    <edge id=":gneJ11_2" function="internal">
        <lane id=":gneJ11_2_0" index="0" speed="7.15" length="4.44" shape="-901.60,205.60 -900.87,202.38 -899.93,201.74"/>
    </edge>
    <edge id=":gneJ11_9" function="internal">
        <lane id=":gneJ11_9_0" index="0" speed="8.55" length="12.02" shape="-900.02,201.72 -898.41,200.20 -894.43,198.85 -888.84,198.40"/>
    </edge>
    <edge id=":gneJ11_10" function="internal">
        <lane id=":gneJ11_10_0" index="0" speed="7.15" length="10.60" shape="-899.93,201.74 -898.70,200.91 -895.07,201.19 -889.98,203.22"/>
    </edge>
    <edge id=":gneJ11_3" function="internal">
        <lane id=":gneJ11_3_0" index="0" speed="7.51" length="12.39" shape="-911.16,198.40 -906.97,198.05 -903.99,197.00 -902.20,195.25 -901.60,192.80"/>
    </edge>
    <edge id=":gneJ11_4" function="internal">
        <lane id=":gneJ11_4_0" index="0" speed="13.89" length="22.31" shape="-911.16,198.40 -888.84,198.40"/>
    </edge>
    <edge id=":gneJ11_5" function="internal">
        <lane id=":gneJ11_5_0" index="0" speed="13.89" length="21.81" shape="-911.16,198.40 -906.37,198.84 -900.37,199.97 -894.47,201.52 -889.98,203.22"/>
    </edge>
    <edge id=":gneJ11_6" function="internal">
        <lane id=":gneJ11_6_0" index="0" speed="9.81" length="14.10" shape="-910.02,203.22 -906.33,200.99 -903.70,198.51 -902.13,195.78 -901.60,192.80"/>
    </edge>
    <edge id=":gneJ11_7" function="internal">
        <lane id=":gneJ11_7_0" index="0" speed="13.89" length="21.81" shape="-910.02,203.22 -905.53,201.52 -899.63,199.97 -893.63,198.84 -888.84,198.40"/>
    </edge>
    <edge id=":gneJ11_8" function="internal">
        <lane id=":gneJ11_8_0" index="0" speed="13.28" length="20.79" shape="-910.02,203.22 -905.01,201.34 -900.00,200.72 -894.99,201.34 -889.98,203.22"/>
    </edge>
    <edge id=":gneJ12_0" function="internal">
        <lane id=":gneJ12_0_0" index="0" speed="6.51" length="9.03" shape="-807.20,198.40 -804.75,198.05 -803.00,197.00 -801.95,195.25 -801.60,192.80"/>
    </edge>
    <edge id=":gneJ12_1" function="internal">
        <lane id=":gneJ12_1_0" index="0" speed="13.89" length="11.20" shape="-807.20,198.40 -796.00,198.40"/>
    </edge>
    <edge id=":gneJ13_0" function="internal">
        <lane id=":gneJ13_0_0" index="0" speed="13.89" length="11.20" shape="-701.60,204.00 -701.60,192.80"/>
    </edge>
    <edge id=":gneJ13_1" function="internal">
        <lane id=":gneJ13_1_0" index="0" speed="6.51" length="4.28" shape="-701.60,204.00 -701.25,201.55 -700.32,200.00"/>
    </edge>
    <edge id=":gneJ13_4" function="internal">
        <lane id=":gneJ13_4_0" index="0" speed="6.51" length="4.75" shape="-700.32,200.00 -700.20,199.80 -698.45,198.75 -696.00,198.40"/>
    </edge>
    <edge id=":gneJ13_2" function="internal">
        <lane id=":gneJ13_2_0" index="0" speed="6.51" length="9.03" shape="-707.20,198.40 -704.75,198.05 -703.00,197.00 -701.95,195.25 -701.60,192.80"/>
    </edge>
    <edge id=":gneJ13_3" function="internal">
        <lane id=":gneJ13_3_0" index="0" speed="13.89" length="11.20" shape="-707.20,198.40 -696.00,198.40"/>
    </edge>
    <edge id=":gneJ14_0" function="internal">
        <lane id=":gneJ14_0_0" index="0" speed="6.51" length="9.03" shape="-607.20,198.40 -604.75,198.05 -603.00,197.00 -601.95,195.25 -601.60,192.80"/>
    </edge>
    <edge id=":gneJ14_1" function="internal">
        <lane id=":gneJ14_1_0" index="0" speed="13.89" length="11.20" shape="-607.20,198.40 -596.00,198.40"/>
    </edge>
    <edge id=":gneJ16_0" function="internal">
        <lane id=":gneJ16_0_0" index="0" speed="13.89" length="11.20" shape="-1001.60,104.00 -1001.60,92.80"/>
    </edge>
    <edge id=":gneJ16_1" function="internal">
        <lane id=":gneJ16_1_0" index="0" speed="6.51" length="4.28" shape="-1001.60,104.00 -1001.25,101.55 -1000.32,100.00"/>
    </edge>
    <edge id=":gneJ16_4" function="internal">
        <lane id=":gneJ16_4_0" index="0" speed="6.51" length="4.75" shape="-1000.32,100.00 -1000.20,99.80 -998.45,98.75 -996.00,98.40"/>
    </edge>
    <edge id=":gneJ16_2" function="internal">
        <lane id=":gneJ16_2_0" index="0" speed="6.51" length="9.03" shape="-1007.20,98.40 -1004.75,98.05 -1003.00,97.00 -1001.95,95.25 -1001.60,92.80"/>
    </edge>
    <edge id=":gneJ16_3" function="internal">
        <lane id=":gneJ16_3_0" index="0" speed="13.89" length="11.20" shape="-1007.20,98.40 -996.00,98.40"/>
    </edge>
    <edge id=":gneJ18_0" function="internal">
        <lane id=":gneJ18_0_0" index="0" speed="13.89" length="11.20" shape="-901.60,104.00 -901.60,92.80"/>
    </edge>
    <edge id=":gneJ18_1" function="internal">
        <lane id=":gneJ18_1_0" index="0" speed="6.51" length="4.28" shape="-901.60,104.00 -901.25,101.55 -900.32,100.00"/>
    </edge>
    <edge id=":gneJ18_4" function="internal">
        <lane id=":gneJ18_4_0" index="0" speed="6.51" length="4.75" shape="-900.32,100.00 -900.20,99.80 -898.45,98.75 -896.00,98.40"/>
    </edge>
    <edge id=":gneJ18_2" function="internal">
        <lane id=":gneJ18_2_0" index="0" speed="6.51" length="9.03" shape="-907.20,98.40 -904.75,98.05 -903.00,97.00 -901.95,95.25 -901.60,92.80"/>
    </edge>
    <edge id=":gneJ18_3" function="internal">
        <lane id=":gneJ18_3_0" index="0" speed="13.89" length="11.20" shape="-907.20,98.40 -896.00,98.40"/>
    </edge>
    <edge id=":gneJ19_0" function="internal">
        <lane id=":gneJ19_0_0" index="0" speed="13.89" length="11.20" shape="-801.60,104.00 -801.60,92.80"/>
    </edge>
    <edge id=":gneJ19_1" function="internal">
        <lane id=":gneJ19_1_0" index="0" speed="6.51" length="4.28" shape="-801.60,104.00 -801.25,101.55 -800.32,100.00"/>
    </edge>
    <edge id=":gneJ19_4" function="internal">
        <lane id=":gneJ19_4_0" index="0" speed="6.51" length="4.75" shape="-800.32,100.00 -800.20,99.80 -798.45,98.75 -796.00,98.40"/>
    </edge>
    <edge id=":gneJ19_2" function="internal">
        <lane id=":gneJ19_2_0" index="0" speed="6.51" length="9.03" shape="-807.20,98.40 -804.75,98.05 -803.00,97.00 -801.95,95.25 -801.60,92.80"/>
    </edge>
    <edge id=":gneJ19_3" function="internal">
        <lane id=":gneJ19_3_0" index="0" speed="13.89" length="11.20" shape="-807.20,98.40 -796.00,98.40"/>
    </edge>
    <edge id=":gneJ2_0" function="internal">
        <lane id=":gneJ2_0_0" index="0" speed="7.46" length="16.54" shape="-715.66,290.38 -709.51,293.04 -705.12,294.01 -702.48,293.27 -701.60,290.82"/>
    </edge>
    <edge id=":gneJ2_1" function="internal">
        <lane id=":gneJ2_1_0" index="0" speed="13.89" length="32.51" shape="-715.66,290.38 -707.83,293.32 -700.00,294.30 -692.17,293.32 -684.34,290.38"/>
    </edge>
    <edge id=":gneJ2_2" function="internal">
        <lane id=":gneJ2_2_0" index="0" speed="13.89" length="32.93" shape="-715.66,290.38 -710.11,292.08 -701.50,293.63 -691.86,294.76 -683.20,295.20"/>
    </edge>
    <edge id=":gneJ2_3" function="internal">
        <lane id=":gneJ2_3_0" index="0" speed="8.65" length="16.78" shape="-716.80,295.20 -710.15,294.93 -705.40,294.11 -702.55,292.74 -701.60,290.82"/>
    </edge>
    <edge id=":gneJ2_4" function="internal">
        <lane id=":gneJ2_4_0" index="0" speed="13.89" length="32.93" shape="-716.80,295.20 -708.14,294.76 -698.50,293.63 -689.89,292.08 -684.34,290.38"/>
    </edge>
    <edge id=":gneJ2_5" function="internal">
        <lane id=":gneJ2_5_0" index="0" speed="13.89" length="33.60" shape="-716.80,295.20 -683.20,295.20"/>
        <lane id=":gneJ2_5_1" index="1" speed="13.89" length="33.60" shape="-716.80,298.40 -683.20,298.40"/>
    </edge>
    <edge id=":gneJ21_0" function="internal">
        <lane id=":gneJ21_0_0" index="0" speed="13.89" length="11.20" shape="-701.60,104.00 -701.60,92.80"/>
    </edge>
    <edge id=":gneJ21_1" function="internal">
        <lane id=":gneJ21_1_0" index="0" speed="6.51" length="4.28" shape="-701.60,104.00 -701.25,101.55 -700.32,100.00"/>
    </edge>
    <edge id=":gneJ21_4" function="internal">
        <lane id=":gneJ21_4_0" index="0" speed="6.51" length="4.75" shape="-700.32,100.00 -700.20,99.80 -698.45,98.75 -696.00,98.40"/>
    </edge>
    <edge id=":gneJ21_2" function="internal">
        <lane id=":gneJ21_2_0" index="0" speed="6.51" length="9.03" shape="-707.20,98.40 -704.75,98.05 -703.00,97.00 -701.95,95.25 -701.60,92.80"/>
    </edge>
    <edge id=":gneJ21_3" function="internal">
        <lane id=":gneJ21_3_0" index="0" speed="13.89" length="11.20" shape="-707.20,98.40 -696.00,98.40"/>
    </edge>
    <edge id=":gneJ22_0" function="internal">
        <lane id=":gneJ22_0_0" index="0" speed="13.89" length="11.20" shape="-601.60,104.00 -601.60,92.80"/>
    </edge>
    <edge id=":gneJ22_1" function="internal">
        <lane id=":gneJ22_1_0" index="0" speed="6.51" length="4.28" shape="-601.60,104.00 -601.25,101.55 -600.32,100.00"/>
    </edge>
    <edge id=":gneJ22_4" function="internal">
        <lane id=":gneJ22_4_0" index="0" speed="6.51" length="4.75" shape="-600.32,100.00 -600.20,99.80 -598.45,98.75 -596.00,98.40"/>
    </edge>
    <edge id=":gneJ22_2" function="internal">
        <lane id=":gneJ22_2_0" index="0" speed="6.51" length="9.03" shape="-607.20,98.40 -604.75,98.05 -603.00,97.00 -601.95,95.25 -601.60,92.80"/>
    </edge>
    <edge id=":gneJ22_3" function="internal">
        <lane id=":gneJ22_3_0" index="0" speed="13.89" length="11.20" shape="-607.20,98.40 -596.00,98.40"/>
    </edge>
    <edge id=":gneJ3_0" function="internal">
        <lane id=":gneJ3_0_0" index="0" speed="3.90" length="2.58" shape="-506.40,295.20 -505.70,295.10 -505.20,294.80 -504.90,294.30 -504.80,293.60"/>
    </edge>
    <edge id=":gneJ3_1" function="internal">
        <lane id=":gneJ3_1_0" index="0" speed="6.08" length="7.74" shape="-506.40,298.40 -504.30,298.10 -502.80,297.20 -501.90,295.70 -501.60,293.60"/>
    </edge>
    <edge id=":gneJ4_0" function="internal">
        <lane id=":gneJ4_0_0" index="0" speed="3.90" length="2.58" shape="-504.80,6.40 -504.90,5.70 -505.20,5.20 -505.70,4.90 -506.40,4.80"/>
    </edge>
    <edge id=":gneJ4_1" function="internal">
        <lane id=":gneJ4_1_0" index="0" speed="6.08" length="7.74" shape="-501.60,6.40 -501.90,4.30 -502.80,2.80 -504.30,1.90 -506.40,1.60"/>
    </edge>
    <edge id=":gneJ5_0" function="internal">
        <lane id=":gneJ5_0_0" index="0" speed="6.51" length="9.03" shape="-701.60,10.40 -701.95,7.95 -703.00,6.20 -704.75,5.15 -707.20,4.80"/>
    </edge>
    <edge id=":gneJ5_1" function="internal">
        <lane id=":gneJ5_1_0" index="0" speed="13.89" length="11.20" shape="-696.00,4.80 -707.20,4.80"/>
        <lane id=":gneJ5_1_1" index="1" speed="13.89" length="11.20" shape="-696.00,1.60 -707.20,1.60"/>
    </edge>
    <edge id=":gneJ6_0" function="internal">
        <lane id=":gneJ6_0_0" index="0" speed="6.51" length="9.03" shape="-901.60,10.40 -901.95,7.95 -903.00,6.20 -904.75,5.15 -907.20,4.80"/>
    </edge>
    <edge id=":gneJ6_1" function="internal">
        <lane id=":gneJ6_1_0" index="0" speed="13.89" length="11.20" shape="-896.00,4.80 -907.20,4.80"/>
        <lane id=":gneJ6_1_1" index="1" speed="13.89" length="11.20" shape="-896.00,1.60 -907.20,1.60"/>
    </edge>
    <edge id=":gneJ7_0" function="internal">
        <lane id=":gneJ7_0_0" index="0" speed="3.90" length="2.58" shape="-1093.60,4.80 -1094.30,4.90 -1094.80,5.20 -1095.10,5.70 -1095.20,6.40"/>
    </edge>
    <edge id=":gneJ7_1" function="internal">
        <lane id=":gneJ7_1_0" index="0" speed="6.08" length="7.74" shape="-1093.60,1.60 -1095.70,1.90 -1097.20,2.80 -1098.10,4.30 -1098.40,6.40"/>
    </edge>

    <edge id="gneE10" from="gneJ11" to="gneJ12" priority="-1">
        <lane id="gneE10_0" index="0" speed="13.89" length="81.64" shape="-888.84,198.40 -807.20,198.40"/>
    </edge>
    <edge id="gneE11" from="gneJ9" to="gneJ11" priority="-1">
        <lane id="gneE11_0" index="0" speed="13.89" length="87.34" shape="-998.50,198.40 -911.16,198.40"/>
    </edge>
    <edge id="gneE12" from="gneJ12" to="gneJ13" priority="-1">
        <lane id="gneE12_0" index="0" speed="13.89" length="88.80" shape="-796.00,198.40 -707.20,198.40"/>
    </edge>
    <edge id="gneE13" from="gneJ13" to="gneJ14" priority="-1">
        <lane id="gneE13_0" index="0" speed="13.89" length="88.80" shape="-696.00,198.40 -607.20,198.40"/>
    </edge>
    <edge id="gneE14" from="gneJ14" to="gneJ15" priority="-1">
        <lane id="gneE14_0" index="0" speed="13.89" length="87.34" shape="-596.00,198.40 -508.66,198.40"/>
    </edge>
    <edge id="gneE15" from="gneJ9" to="gneJ16" priority="-1">
        <lane id="gneE15_0" index="0" speed="13.89" length="91.30" shape="-1001.60,195.30 -1001.60,104.00"/>
    </edge>
    <edge id="gneE16" from="gneJ16" to="gneJ17" priority="-1">
        <lane id="gneE16_0" index="0" speed="13.89" length="92.80" shape="-1001.60,92.80 -1001.60,0.00"/>
    </edge>
    <edge id="gneE17" from="gneJ11" to="gneJ18" priority="-1">
        <lane id="gneE17_0" index="0" speed="13.89" length="88.80" shape="-901.60,192.80 -901.60,104.00"/>
    </edge>
    <edge id="gneE18" from="gneJ18" to="gneJ6" priority="-1">
        <lane id="gneE18_0" index="0" speed="13.89" length="82.40" shape="-901.60,92.80 -901.60,10.40"/>
    </edge>
    <edge id="gneE19" from="gneJ12" to="gneJ19" priority="-1">
        <lane id="gneE19_0" index="0" speed="13.89" length="88.80" shape="-801.60,192.80 -801.60,104.00"/>
    </edge>
    <edge id="gneE20" from="gneJ19" to="gneJ20" priority="-1">
        <lane id="gneE20_0" index="0" speed="13.89" length="92.80" shape="-801.60,92.80 -801.60,0.00"/>
    </edge>
    <edge id="gneE21" from="gneJ13" to="gneJ21" priority="-1">
        <lane id="gneE21_0" index="0" speed="13.89" length="88.80" shape="-701.60,192.80 -701.60,104.00"/>
    </edge>
    <edge id="gneE22" from="gneJ21" to="gneJ5" priority="-1">
        <lane id="gneE22_0" index="0" speed="13.89" length="82.40" shape="-701.60,92.80 -701.60,10.40"/>
    </edge>
    <edge id="gneE23" from="gneJ14" to="gneJ22" priority="-1">
        <lane id="gneE23_0" index="0" speed="13.89" length="88.80" shape="-601.60,192.80 -601.60,104.00"/>
    </edge>
    <edge id="gneE24" from="gneJ22" to="gneJ23" priority="-1">
        <lane id="gneE24_0" index="0" speed="13.89" length="92.80" shape="-601.60,92.80 -601.60,0.00"/>
    </edge>
    <edge id="gneE27" from="gneJ25" to="gneJ16" priority="-1">
        <lane id="gneE27_0" index="0" speed="13.89" length="92.80" shape="-1100.00,98.40 -1007.20,98.40"/>
    </edge>
    <edge id="gneE28" from="gneJ16" to="gneJ18" priority="-1">
        <lane id="gneE28_0" index="0" speed="13.89" length="88.80" shape="-996.00,98.40 -907.20,98.40"/>
    </edge>
    <edge id="gneE29" from="gneJ18" to="gneJ19" priority="-1">
        <lane id="gneE29_0" index="0" speed="13.89" length="88.80" shape="-896.00,98.40 -807.20,98.40"/>
    </edge>
    <edge id="gneE30" from="gneJ19" to="gneJ21" priority="-1">
        <lane id="gneE30_0" index="0" speed="13.89" length="88.80" shape="-796.00,98.40 -707.20,98.40"/>
    </edge>
    <edge id="gneE31" from="gneJ21" to="gneJ22" priority="-1">
        <lane id="gneE31_0" index="0" speed="13.89" length="88.80" shape="-696.00,98.40 -607.20,98.40"/>
    </edge>
    <edge id="gneE32" from="gneJ22" to="gneJ26" priority="-1">
        <lane id="gneE32_0" index="0" speed="13.89" length="96.00" shape="-596.00,98.40 -500.00,98.40"/>
    </edge>
    <edge id="gneE33" from="gneJ0" to="gneJ11" priority="-1">
        <lane id="gneE33_0" index="0" speed="13.89" length="194.90" shape="-1084.34,290.38 -910.02,203.22"/>
    </edge>
    <edge id="gneE34" from="gneJ11" to="gneJ2" priority="-1">
        <lane id="gneE34_0" index="0" speed="13.89" length="194.90" shape="-889.98,203.22 -715.66,290.38"/>
    </edge>
    <edge id="gneE35" from="gneJ2" to="gneJ15" priority="-1">
        <lane id="gneE35_0" index="0" speed="13.89" length="197.40" shape="-684.34,290.38 -507.78,202.10"/>
    </edge>
    <edge id="gneE36" from="gneJ1" to="gneJ11" priority="-1">
        <lane id="gneE36_0" index="0" speed="13.89" length="84.00" shape="-901.60,289.60 -901.60,205.60"/>
    </edge>
    <edge id="gneE37" from="gneJ2" to="gneJ13" priority="-1">
        <lane id="gneE37_0" index="0" speed="13.89" length="86.82" shape="-701.60,290.82 -701.60,204.00"/>
    </edge>
    <edge id="gneE9" from="gneJ9" to="gneJ10" priority="-1">
        <lane id="gneE9_0" index="0" speed="13.89" length="95.30" shape="-1004.70,201.60 -1100.00,201.60"/>
    </edge>
    <edge id="r1" from="gneJ7" to="gneJ0" priority="-1">
        <lane id="r1_0" index="0" speed="13.89" length="282.82" shape="-1095.20,6.40 -1095.20,289.22"/>
        <lane id="r1_1" index="1" speed="13.89" length="282.82" shape="-1098.40,6.40 -1098.40,289.22"/>
    </edge>
    <edge id="r2" from="gneJ0" to="gneJ1" priority="-1">
        <lane id="r2_0" index="0" speed="13.89" length="176.00" shape="-1083.20,295.20 -907.20,295.20"/>
        <lane id="r2_1" index="1" speed="13.89" length="176.00" shape="-1083.20,298.40 -907.20,298.40"/>
    </edge>
    <edge id="r3" from="gneJ1" to="gneJ2" priority="-1">
        <lane id="r3_0" index="0" speed="13.89" length="179.20" shape="-896.00,295.20 -716.80,295.20"/>
        <lane id="r3_1" index="1" speed="13.89" length="179.20" shape="-896.00,298.40 -716.80,298.40"/>
    </edge>
    <edge id="r4" from="gneJ2" to="gneJ3" priority="-1">
        <lane id="r4_0" index="0" speed="13.89" length="176.80" shape="-683.20,295.20 -506.40,295.20"/>
        <lane id="r4_1" index="1" speed="13.89" length="176.80" shape="-683.20,298.40 -506.40,298.40"/>
    </edge>
    <edge id="r5" from="gneJ3" to="gneJ4" priority="-1">
        <lane id="r5_0" index="0" speed="13.89" length="287.20" shape="-504.80,293.60 -504.80,6.40"/>
        <lane id="r5_1" index="1" speed="13.89" length="287.20" shape="-501.60,293.60 -501.60,6.40"/>
    </edge>
    <edge id="r7" from="gneJ6" to="gneJ7" priority="-1">
        <lane id="r7_0" index="0" speed="13.89" length="186.40" shape="-907.20,4.80 -1093.60,4.80"/>
        <lane id="r7_1" index="1" speed="13.89" length="186.40" shape="-907.20,1.60 -1093.60,1.60"/>
    </edge>
    <edge id="r8" from="gneJ5" to="gneJ6" priority="-1">
        <lane id="r8_0" index="0" speed="13.89" length="188.80" shape="-707.20,4.80 -896.00,4.80"/>
        <lane id="r8_1" index="1" speed="13.89" length="188.80" shape="-707.20,1.60 -896.00,1.60"/>
    </edge>
    <edge id="r9" from="gneJ4" to="gneJ5" priority="-1">
        <lane id="r9_0" index="0" speed="13.89" length="189.60" shape="-506.40,4.80 -696.00,4.80"/>
        <lane id="r9_1" index="1" speed="13.89" length="189.60" shape="-506.40,1.60 -696.00,1.60"/>
    </edge>

    <junction id="gneJ0" type="priority" x="-1100.00" y="300.00" incLanes="r1_0 r1_1" intLanes=":gneJ0_0_0 :gneJ0_1_0 :gneJ0_2_0" shape="-1083.20,300.00 -1083.20,293.60 -1083.62,291.81 -1085.05,288.95 -1087.66,290.14 -1089.80,290.88 -1091.46,291.15 -1092.65,290.97 -1093.36,290.33 -1093.60,289.22 -1100.00,289.22 -1099.53,292.52 -1098.13,295.21 -1095.80,297.31 -1092.53,298.80 -1088.33,299.70">
        <request index="0" response="000" foes="000" cont="0"/>
        <request index="1" response="000" foes="000" cont="0"/>
        <request index="2" response="000" foes="000" cont="0"/>
    </junction>
    <junction id="gneJ1" type="priority" x="-900.00" y="300.00" incLanes="r2_0 r2_1" intLanes=":gneJ1_0_0 :gneJ1_1_0 :gneJ1_1_1" shape="-896.00,300.00 -896.00,293.60 -898.22,293.16 -899.00,292.60 -899.56,291.82 -899.89,290.82 -900.00,289.60 -903.20,289.60 -903.64,291.82 -904.20,292.60 -904.98,293.16 -905.98,293.49 -907.20,293.60 -907.20,300.00">
        <request index="0" response="000" foes="000" cont="0"/>
        <request index="1" response="000" foes="000" cont="0"/>
        <request index="2" response="000" foes="000" cont="0"/>
    </junction>
    <junction id="gneJ10" type="dead_end" x="-1100.00" y="200.00" incLanes="gneE9_0" intLanes="" shape="-1100.00,203.20 -1100.00,200.00"/>
    <junction id="gneJ11" type="priority" x="-900.00" y="200.00" incLanes="gneE36_0 gneE11_0 gneE33_0" intLanes=":gneJ11_0_0 :gneJ11_9_0 :gneJ11_10_0 :gneJ11_3_0 :gneJ11_4_0 :gneJ11_5_0 :gneJ11_6_0 :gneJ11_7_0 :gneJ11_8_0" shape="-903.20,205.60 -900.00,205.60 -898.97,203.01 -897.67,202.56 -895.87,202.69 -893.54,203.39 -890.70,204.65 -889.27,201.79 -888.84,200.00 -888.84,196.80 -892.25,196.69 -895.04,196.36 -897.21,195.80 -898.76,195.02 -899.69,194.02 -900.00,192.80 -903.20,192.80 -904.08,195.02 -905.19,195.80 -906.74,196.36 -908.72,196.69 -911.16,196.80 -911.16,200.00 -910.73,201.79 -909.30,204.65 -907.44,203.83 -905.91,203.40 -904.73,203.36 -903.88,203.72 -903.37,204.46">
        <request index="0" response="000111000" foes="111111000" cont="0"/>
        <request index="1" response="000110000" foes="110110000" cont="1"/>
        <request index="2" response="000100000" foes="100100000" cont="1"/>
        <request index="3" response="000000000" foes="001000001" cont="0"/>
        <request index="4" response="000000000" foes="011000011" cont="0"/>
        <request index="5" response="000000000" foes="111000111" cont="0"/>
        <request index="6" response="000111001" foes="000111001" cont="0"/>
        <request index="7" response="000110011" foes="000110011" cont="0"/>
        <request index="8" response="000100111" foes="000100111" cont="0"/>
    </junction>
    <junction id="gneJ12" type="priority" x="-800.00" y="200.00" incLanes="gneE10_0" intLanes=":gneJ12_0_0 :gneJ12_1_0" shape="-796.00,200.00 -796.00,196.80 -798.22,196.36 -799.00,195.80 -799.56,195.02 -799.89,194.02 -800.00,192.80 -803.20,192.80 -803.64,195.02 -804.20,195.80 -804.98,196.36 -805.98,196.69 -807.20,196.80 -807.20,200.00">
        <request index="0" response="00" foes="00" cont="0"/>
        <request index="1" response="00" foes="00" cont="0"/>
    </junction>
    <junction id="gneJ13" type="priority" x="-700.00" y="200.00" incLanes="gneE37_0 gneE12_0" intLanes=":gneJ13_0_0 :gneJ13_4_0 :gneJ13_2_0 :gneJ13_3_0" shape="-703.20,204.00 -700.00,204.00 -699.56,201.78 -699.00,201.00 -698.22,200.44 -697.22,200.11 -696.00,200.00 -696.00,196.80 -698.22,196.36 -699.00,195.80 -699.56,195.02 -699.89,194.02 -700.00,192.80 -703.20,192.80 -703.64,195.02 -704.20,195.80 -704.98,196.36 -705.98,196.69 -707.20,196.80 -707.20,200.00 -704.98,200.44 -704.20,201.00 -703.64,201.78 -703.31,202.78">
        <request index="0" response="1100" foes="1100" cont="0"/>
        <request index="1" response="1000" foes="1000" cont="1"/>
        <request index="2" response="0000" foes="0001" cont="0"/>
        <request index="3" response="0000" foes="0011" cont="0"/>
    </junction>
    <junction id="gneJ14" type="priority" x="-600.00" y="200.00" incLanes="gneE13_0" intLanes=":gneJ14_0_0 :gneJ14_1_0" shape="-596.00,200.00 -596.00,196.80 -598.22,196.36 -599.00,195.80 -599.56,195.02 -599.89,194.02 -600.00,192.80 -603.20,192.80 -603.64,195.02 -604.20,195.80 -604.98,196.36 -605.98,196.69 -607.20,196.80 -607.20,200.00">
        <request index="0" response="00" foes="00" cont="0"/>
        <request index="1" response="00" foes="00" cont="0"/>
    </junction>
    <junction id="gneJ15" type="dead_end" x="-500.00" y="200.00" incLanes="gneE14_0 gneE35_0" intLanes="" shape="-508.66,196.80 -508.66,200.00 -508.50,200.67 -507.07,203.53 -503.37,201.48 -501.26,199.79 -500.73,198.48 -501.79,197.55 -504.43,196.99"/>
    <junction id="gneJ16" type="priority" x="-1000.00" y="100.00" incLanes="gneE15_0 gneE27_0" intLanes=":gneJ16_0_0 :gneJ16_4_0 :gneJ16_2_0 :gneJ16_3_0" shape="-1003.20,104.00 -1000.00,104.00 -999.56,101.78 -999.00,101.00 -998.22,100.44 -997.22,100.11 -996.00,100.00 -996.00,96.80 -998.22,96.36 -999.00,95.80 -999.56,95.02 -999.89,94.02 -1000.00,92.80 -1003.20,92.80 -1003.64,95.02 -1004.20,95.80 -1004.98,96.36 -1005.98,96.69 -1007.20,96.80 -1007.20,100.00 -1004.98,100.44 -1004.20,101.00 -1003.64,101.78 -1003.31,102.78">
        <request index="0" response="1100" foes="1100" cont="0"/>
        <request index="1" response="1000" foes="1000" cont="1"/>
        <request index="2" response="0000" foes="0001" cont="0"/>
        <request index="3" response="0000" foes="0011" cont="0"/>
    </junction>
    <junction id="gneJ17" type="dead_end" x="-1000.00" y="0.00" incLanes="gneE16_0" intLanes="" shape="-1003.20,0.00 -1000.00,0.00"/>
    <junction id="gneJ18" type="priority" x="-900.00" y="100.00" incLanes="gneE17_0 gneE28_0" intLanes=":gneJ18_0_0 :gneJ18_4_0 :gneJ18_2_0 :gneJ18_3_0" shape="-903.20,104.00 -900.00,104.00 -899.56,101.78 -899.00,101.00 -898.22,100.44 -897.22,100.11 -896.00,100.00 -896.00,96.80 -898.22,96.36 -899.00,95.80 -899.56,95.02 -899.89,94.02 -900.00,92.80 -903.20,92.80 -903.64,95.02 -904.20,95.80 -904.98,96.36 -905.98,96.69 -907.20,96.80 -907.20,100.00 -904.98,100.44 -904.20,101.00 -903.64,101.78 -903.31,102.78">
        <request index="0" response="1100" foes="1100" cont="0"/>
        <request index="1" response="1000" foes="1000" cont="1"/>
        <request index="2" response="0000" foes="0001" cont="0"/>
        <request index="3" response="0000" foes="0011" cont="0"/>
    </junction>
    <junction id="gneJ19" type="priority" x="-800.00" y="100.00" incLanes="gneE19_0 gneE29_0" intLanes=":gneJ19_0_0 :gneJ19_4_0 :gneJ19_2_0 :gneJ19_3_0" shape="-803.20,104.00 -800.00,104.00 -799.56,101.78 -799.00,101.00 -798.22,100.44 -797.22,100.11 -796.00,100.00 -796.00,96.80 -798.22,96.36 -799.00,95.80 -799.56,95.02 -799.89,94.02 -800.00,92.80 -803.20,92.80 -803.64,95.02 -804.20,95.80 -804.98,96.36 -805.98,96.69 -807.20,96.80 -807.20,100.00 -804.98,100.44 -804.20,101.00 -803.64,101.78 -803.31,102.78">
        <request index="0" response="1100" foes="1100" cont="0"/>
        <request index="1" response="1000" foes="1000" cont="1"/>
        <request index="2" response="0000" foes="0001" cont="0"/>
        <request index="3" response="0000" foes="0011" cont="0"/>
    </junction>
    <junction id="gneJ2" type="priority" x="-700.00" y="300.00" incLanes="gneE34_0 r3_0 r3_1" intLanes=":gneJ2_0_0 :gneJ2_1_0 :gneJ2_2_0 :gneJ2_3_0 :gneJ2_4_0 :gneJ2_5_0 :gneJ2_5_1" shape="-683.20,300.00 -683.20,293.60 -683.62,291.81 -685.05,288.95 -689.62,291.08 -693.36,292.48 -696.26,293.15 -698.34,293.10 -699.58,292.33 -700.00,290.82 -703.20,290.82 -704.51,292.39 -706.14,292.35 -708.42,291.77 -711.36,290.63 -714.95,288.95 -716.38,291.81 -716.80,293.60 -716.80,300.00">
        <request index="0" response="0001000" foes="0001000" cont="0"/>
        <request index="1" response="0011000" foes="0011000" cont="0"/>
        <request index="2" response="1111000" foes="1111000" cont="0"/>
        <request index="3" response="0000000" foes="0000111" cont="0"/>
        <request index="4" response="0000000" foes="0000110" cont="0"/>
        <request index="5" response="0000000" foes="0000100" cont="0"/>
        <request index="6" response="0000000" foes="0000100" cont="0"/>
    </junction>
    <junction id="gneJ20" type="dead_end" x="-800.00" y="0.00" incLanes="gneE20_0" intLanes="" shape="-803.20,0.00 -800.00,0.00"/>
    <junction id="gneJ21" type="priority" x="-700.00" y="100.00" incLanes="gneE21_0 gneE30_0" intLanes=":gneJ21_0_0 :gneJ21_4_0 :gneJ21_2_0 :gneJ21_3_0" shape="-703.20,104.00 -700.00,104.00 -699.56,101.78 -699.00,101.00 -698.22,100.44 -697.22,100.11 -696.00,100.00 -696.00,96.80 -698.22,96.36 -699.00,95.80 -699.56,95.02 -699.89,94.02 -700.00,92.80 -703.20,92.80 -703.64,95.02 -704.20,95.80 -704.98,96.36 -705.98,96.69 -707.20,96.80 -707.20,100.00 -704.98,100.44 -704.20,101.00 -703.64,101.78 -703.31,102.78">