<?xml version="1.0" encoding="UTF-8"?>

<!-- generated on Sunday 30 May 2021 11:42:05 PM by Eclipse SUMO netedit Version 1.4.0
<configuration xmlns:xsi="http://www.w3.org/2001/XMLSchema-instance" xsi:noNamespaceSchemaLocation="http://sumo.dlr.de/xsd/netconvertConfiguration.xsd">

    <input>
        <sumo-net-file value="/home/abou/Desktop/Python%20Projects/Traffic%20Control%20Project/SUMO/new_demo.net.xml"/>
    </input>

    <output>
        <output-file value="/home/abou/Desktop/Python%20Projects/Traffic%20Control%20Project/SUMO/new_demo.net.xml"/>
    </output>

    <processing>
        <geometry.min-radius.fix.railways value="false"/>
        <geometry.max-grade.fix value="false"/>
        <offset.disable-normalization value="true"/>
        <lefthand value="false"/>
    </processing>

    <junctions>
        <no-turnarounds value="true"/>
        <junctions.corner-detail value="5"/>
        <junctions.limit-turn-speed value="5.5"/>
        <rectangular-lane-cut value="false"/>
    </junctions>

    <pedestrian>
        <walkingareas value="false"/>
    </pedestrian>

    <netedit>
        <route-files value="/home/abou/Desktop/Python%20Projects/Traffic%20Control%20Project/SUMO/new_vehicle.rou.xml"/>
    </netedit>

    <report>
        <aggregate-warnings value="5"/>
    </report>

</configuration>
-->

<routes xmlns:xsi="http://www.w3.org/2001/XMLSchema-instance" xsi:noNamespaceSchemaLocation="http://sumo.dlr.de/xsd/routes_file.xsd">
    <vType id="DEFAULT_VEHTYPE" vClass="emergency" emissionClass="HBEFA3/PC_G_EU4" guiShape="emergency" width="1.80" height="1.50"/>
    <vType id="vType_0"/>
</routes>
