<?xml version="1.0" encoding="UTF-8"?>

<!-- generated on Friday 28 May 2021 04:47:59 PM by Eclipse SUMO netedit Version 1.4.0
<configuration xmlns:xsi="http://www.w3.org/2001/XMLSchema-instance" xsi:noNamespaceSchemaLocation="http://sumo.dlr.de/xsd/netconvertConfiguration.xsd">

    <input>
        <sumo-net-file value="/home/abou/Desktop/Python%20Projects/Traffic%20Control%20Project/SUMO/new_demo.net.xml"/>
    </input>

    <output>
        <output-file value="/home/abou/Desktop/Python%20Projects/Traffic%20Control%20Project/SUMO/new_demo.net.xml"/>
    </output>

    <processing>
        <geometry.min-radius.fix.railways value="false"/>
        <geometry.max-grade.fix value="false"/>
        <offset.disable-normalization value="true"/>
        <lefthand value="false"/>
    </processing>

    <junctions>
        <no-turnarounds value="true"/>
        <junctions.corner-detail value="5"/>
        <junctions.limit-turn-speed value="5.5"/>
        <rectangular-lane-cut value="false"/>
    </junctions>

    <pedestrian>
        <walkingareas value="false"/>
    </pedestrian>

    <report>
        <aggregate-warnings value="5"/>
    </report>

</configuration>
-->

<net version="1.3" junctionCornerDetail="5" limitTurnSpeed="5.50" xmlns:xsi="http://www.w3.org/2001/XMLSchema-instance" xsi:noNamespaceSchemaLocation="http://sumo.dlr.de/xsd/net_file.xsd">

    <location netOffset="0.00,0.00" convBoundary="1500.00,900.00,1900.00,1300.00" origBoundary="-10000000000.00,-10000000000.00,10000000000.00,10000000000.00" projParameter="!"/>

    <edge id=":gneJ0_0" function="internal">
        <lane id=":gneJ0_0_0" index="0" speed="6.08" length="7.74" shape="1503.20,1301.60 1501.10,1301.30 1499.60,1300.40 1498.70,1298.90 1498.40,1296.80"/>
    </edge>
    <edge id=":gneJ0_1" function="internal">
        <lane id=":gneJ0_1_0" index="0" speed="3.90" length="2.58" shape="1501.60,1296.80 1501.70,1297.50 1502.00,1298.00 1502.50,1298.30 1503.20,1298.40"/>
    </edge>
    <edge id=":gneJ1_0" function="internal">
        <lane id=":gneJ1_0_0" index="0" speed="13.89" length="14.40" shape="1607.20,1301.60 1592.80,1301.60"/>
    </edge>
    <edge id=":gneJ1_1" function="internal">
        <lane id=":gneJ1_1_0" index="0" speed="8.00" length="5.93" shape="1607.20,1301.60 1603.35,1301.05 1601.60,1300.00"/>
    </edge>
    <edge id=":gneJ1_6" function="internal">
        <lane id=":gneJ1_6_0" index="0" speed="8.00" length="8.26" shape="1601.60,1300.00 1600.60,1299.40 1598.95,1296.65 1598.40,1292.80"/>
    </edge>
    <edge id=":gneJ1_2" function="internal">
        <lane id=":gneJ1_2_0" index="0" speed="6.51" length="9.03" shape="1601.60,1292.80 1601.95,1295.25 1603.00,1297.00 1604.75,1298.05 1607.20,1298.40"/>
    </edge>
    <edge id=":gneJ1_3" function="internal">
        <lane id=":gneJ1_3_0" index="0" speed="8.00" length="14.19" shape="1601.60,1292.80 1601.05,1296.65 1599.40,1299.40 1596.65,1301.05 1592.80,1301.60"/>
    </edge>
    <edge id=":gneJ1_4" function="internal">
        <lane id=":gneJ1_4_0" index="0" speed="6.51" length="9.03" shape="1592.80,1298.40 1595.25,1298.05 1597.00,1297.00 1598.05,1295.25 1598.40,1292.80"/>
    </edge>
    <edge id=":gneJ1_5" function="internal">
        <lane id=":gneJ1_5_0" index="0" speed="13.89" length="14.40" shape="1592.80,1298.40 1607.20,1298.40"/>
    </edge>
    <edge id=":gneJ15_0" function="internal">
        <lane id=":gneJ15_0_0" index="0" speed="13.89" length="14.40" shape="1807.20,1301.60 1792.80,1301.60"/>
    </edge>
    <edge id=":gneJ15_1" function="internal">
        <lane id=":gneJ15_1_0" index="0" speed="8.00" length="5.93" shape="1807.20,1301.60 1803.35,1301.05 1801.60,1300.00"/>
    </edge>
    <edge id=":gneJ15_6" function="internal">
        <lane id=":gneJ15_6_0" index="0" speed="8.00" length="8.26" shape="1801.60,1300.00 1800.60,1299.40 1798.95,1296.65 1798.40,1292.80"/>
    </edge>
    <edge id=":gneJ15_2" function="internal">
        <lane id=":gneJ15_2_0" index="0" speed="6.51" length="9.03" shape="1801.60,1292.80 1801.95,1295.25 1803.00,1297.00 1804.75,1298.05 1807.20,1298.40"/>
    </edge>
    <edge id=":gneJ15_3" function="internal">
        <lane id=":gneJ15_3_0" index="0" speed="8.00" length="14.19" shape="1801.60,1292.80 1801.05,1296.65 1799.40,1299.40 1796.65,1301.05 1792.80,1301.60"/>
    </edge>
    <edge id=":gneJ15_4" function="internal">
        <lane id=":gneJ15_4_0" index="0" speed="6.51" length="9.03" shape="1792.80,1298.40 1795.25,1298.05 1797.00,1297.00 1798.05,1295.25 1798.40,1292.80"/>
    </edge>
    <edge id=":gneJ15_5" function="internal">
        <lane id=":gneJ15_5_0" index="0" speed="13.89" length="14.40" shape="1792.80,1298.40 1807.20,1298.40"/>
    </edge>
    <edge id=":gneJ16_0" function="internal">
        <lane id=":gneJ16_0_0" index="0" speed="6.08" length="7.74" shape="1901.60,1296.80 1901.30,1298.90 1900.40,1300.40 1898.90,1301.30 1896.80,1301.60"/>
    </edge>
    <edge id=":gneJ16_1" function="internal">
        <lane id=":gneJ16_1_0" index="0" speed="3.90" length="2.58" shape="1896.80,1298.40 1897.50,1298.30 1898.00,1298.00 1898.30,1297.50 1898.40,1296.80"/>
    </edge>
    <edge id=":gneJ17_0" function="internal">
        <lane id=":gneJ17_0_0" index="0" speed="6.51" length="9.03" shape="1898.40,1207.20 1898.05,1204.75 1897.00,1203.00 1895.25,1201.95 1892.80,1201.60"/>
    </edge>
    <edge id=":gneJ17_1" function="internal">
        <lane id=":gneJ17_1_0" index="0" speed="13.89" length="14.40" shape="1898.40,1207.20 1898.40,1192.80"/>
    </edge>
    <edge id=":gneJ17_2" function="internal">
        <lane id=":gneJ17_2_0" index="0" speed="13.89" length="14.40" shape="1901.60,1192.80 1901.60,1207.20"/>
    </edge>
    <edge id=":gneJ17_3" function="internal">
        <lane id=":gneJ17_3_0" index="0" speed="8.00" length="5.93" shape="1901.60,1192.80 1901.05,1196.65 1900.00,1198.40"/>
    </edge>
    <edge id=":gneJ17_6" function="internal">
        <lane id=":gneJ17_6_0" index="0" speed="8.00" length="8.26" shape="1900.00,1198.40 1899.40,1199.40 1896.65,1201.05 1892.80,1201.60"/>
    </edge>
    <edge id=":gneJ17_4" function="internal">
        <lane id=":gneJ17_4_0" index="0" speed="6.51" length="9.03" shape="1892.80,1198.40 1895.25,1198.05 1897.00,1197.00 1898.05,1195.25 1898.40,1192.80"/>
    </edge>
    <edge id=":gneJ17_5" function="internal">
        <lane id=":gneJ17_5_0" index="0" speed="8.00" length="14.19" shape="1892.80,1198.40 1896.65,1198.95 1899.40,1200.60 1901.05,1203.35 1901.60,1207.20"/>
    </edge>
    <edge id=":gneJ18_0" function="internal">
        <lane id=":gneJ18_0_0" index="0" speed="6.51" length="9.03" shape="1898.40,1107.20 1898.05,1104.75 1897.00,1103.00 1895.25,1101.95 1892.80,1101.60"/>
    </edge>
    <edge id=":gneJ18_1" function="internal">
        <lane id=":gneJ18_1_0" index="0" speed="13.89" length="14.40" shape="1898.40,1107.20 1898.40,1092.80"/>
    </edge>
    <edge id=":gneJ18_2" function="internal">
        <lane id=":gneJ18_2_0" index="0" speed="13.89" length="14.40" shape="1901.60,1092.80 1901.60,1107.20"/>
    </edge>
    <edge id=":gneJ18_3" function="internal">
        <lane id=":gneJ18_3_0" index="0" speed="8.00" length="5.93" shape="1901.60,1092.80 1901.05,1096.65 1900.00,1098.40"/>
    </edge>
    <edge id=":gneJ18_6" function="internal">
        <lane id=":gneJ18_6_0" index="0" speed="8.00" length="8.26" shape="1900.00,1098.40 1899.40,1099.40 1896.65,1101.05 1892.80,1101.60"/>
    </edge>
    <edge id=":gneJ18_4" function="internal">
        <lane id=":gneJ18_4_0" index="0" speed="6.51" length="9.03" shape="1892.80,1098.40 1895.25,1098.05 1897.00,1097.00 1898.05,1095.25 1898.40,1092.80"/>
    </edge>
    <edge id=":gneJ18_5" function="internal">
        <lane id=":gneJ18_5_0" index="0" speed="8.00" length="14.19" shape="1892.80,1098.40 1896.65,1098.95 1899.40,1100.60 1901.05,1103.35 1901.60,1107.20"/>
    </edge>
    <edge id=":gneJ19_0" function="internal">
        <lane id=":gneJ19_0_0" index="0" speed="6.51" length="9.03" shape="1798.40,1107.20 1798.05,1104.75 1797.00,1103.00 1795.25,1101.95 1792.80,1101.60"/>
    </edge>
    <edge id=":gneJ19_1" function="internal">
        <lane id=":gneJ19_1_0" index="0" speed="13.89" length="14.40" shape="1798.40,1107.20 1798.40,1092.80"/>
    </edge>
    <edge id=":gneJ19_2" function="internal">
        <lane id=":gneJ19_2_0" index="0" speed="8.00" length="5.93" shape="1798.40,1107.20 1798.95,1103.35 1800.00,1101.60"/>
    </edge>
    <edge id=":gneJ19_12" function="internal">
        <lane id=":gneJ19_12_0" index="0" speed="8.00" length="8.26" shape="1800.00,1101.60 1800.60,1100.60 1803.35,1098.95 1807.20,1098.40"/>
    </edge>
    <edge id=":gneJ19_3" function="internal">
        <lane id=":gneJ19_3_0" index="0" speed="6.51" length="9.03" shape="1807.20,1101.60 1804.75,1101.95 1803.00,1103.00 1801.95,1104.75 1801.60,1107.20"/>
    </edge>
    <edge id=":gneJ19_4" function="internal">
        <lane id=":gneJ19_4_0" index="0" speed="13.89" length="14.40" shape="1807.20,1101.60 1792.80,1101.60"/>
    </edge>
    <edge id=":gneJ19_5" function="internal">
        <lane id=":gneJ19_5_0" index="0" speed="8.00" length="5.93" shape="1807.20,1101.60 1803.35,1101.05 1801.60,1100.00"/>
    </edge>
    <edge id=":gneJ19_13" function="internal">
        <lane id=":gneJ19_13_0" index="0" speed="8.00" length="8.26" shape="1801.60,1100.00 1800.60,1099.40 1798.95,1096.65 1798.40,1092.80"/>
    </edge>
    <edge id=":gneJ19_6" function="internal">
        <lane id=":gneJ19_6_0" index="0" speed="6.51" length="9.03" shape="1801.60,1092.80 1801.95,1095.25 1803.00,1097.00 1804.75,1098.05 1807.20,1098.40"/>
    </edge>
    <edge id=":gneJ19_7" function="internal">
        <lane id=":gneJ19_7_0" index="0" speed="13.89" length="14.40" shape="1801.60,1092.80 1801.60,1107.20"/>
    </edge>
    <edge id=":gneJ19_8" function="internal">
        <lane id=":gneJ19_8_0" index="0" speed="8.00" length="5.93" shape="1801.60,1092.80 1801.05,1096.65 1800.00,1098.40"/>
    </edge>
    <edge id=":gneJ19_14" function="internal">
        <lane id=":gneJ19_14_0" index="0" speed="8.00" length="8.26" shape="1800.00,1098.40 1799.40,1099.40 1796.65,1101.05 1792.80,1101.60"/>
    </edge>
    <edge id=":gneJ19_9" function="internal">
        <lane id=":gneJ19_9_0" index="0" speed="6.51" length="9.03" shape="1792.80,1098.40 1795.25,1098.05 1797.00,1097.00 1798.05,1095.25 1798.40,1092.80"/>
    </edge>
    <edge id=":gneJ19_10" function="internal">
        <lane id=":gneJ19_10_0" index="0" speed="13.89" length="14.40" shape="1792.80,1098.40 1807.20,1098.40"/>
    </edge>
    <edge id=":gneJ19_11" function="internal">
        <lane id=":gneJ19_11_0" index="0" speed="8.00" length="5.93" shape="1792.80,1098.40 1796.65,1098.95 1798.40,1100.00"/>
    </edge>
    <edge id=":gneJ19_15" function="internal">
        <lane id=":gneJ19_15_0" index="0" speed="8.00" length="8.26" shape="1798.40,1100.00 1799.40,1100.60 1801.05,1103.35 1801.60,1107.20"/>
    </edge>
    <edge id=":gneJ2_0" function="internal">
        <lane id=":gneJ2_0_0" index="0" speed="13.89" length="14.40" shape="1707.20,1301.60 1692.80,1301.60"/>
    </edge>
    <edge id=":gneJ2_1" function="internal">
        <lane id=":gneJ2_1_0" index="0" speed="8.00" length="5.93" shape="1707.20,1301.60 1703.35,1301.05 1701.60,1300.00"/>
    </edge>
    <edge id=":gneJ2_6" function="internal">
        <lane id=":gneJ2_6_0" index="0" speed="8.00" length="8.26" shape="1701.60,1300.00 1700.60,1299.40 1698.95,1296.65 1698.40,1292.80"/>
    </edge>
    <edge id=":gneJ2_2" function="internal">
        <lane id=":gneJ2_2_0" index="0" speed="6.51" length="9.03" shape="1701.60,1292.80 1701.95,1295.25 1703.00,1297.00 1704.75,1298.05 1707.20,1298.40"/>
    </edge>
    <edge id=":gneJ2_3" function="internal">
        <lane id=":gneJ2_3_0" index="0" speed="8.00" length="14.19" shape="1701.60,1292.80 1701.05,1296.65 1699.40,1299.40 1696.65,1301.05 1692.80,1301.60"/>
    </edge>
    <edge id=":gneJ2_4" function="internal">
        <lane id=":gneJ2_4_0" index="0" speed="6.51" length="9.03" shape="1692.80,1298.40 1695.25,1298.05 1697.00,1297.00 1698.05,1295.25 1698.40,1292.80"/>
    </edge>
    <edge id=":gneJ2_5" function="internal">
        <lane id=":gneJ2_5_0" index="0" speed="13.89" length="14.40" shape="1692.80,1298.40 1707.20,1298.40"/>
    </edge>
    <edge id=":gneJ20_0" function="internal">
        <lane id=":gneJ20_0_0" index="0" speed="6.51" length="9.03" shape="1798.40,1207.20 1798.05,1204.75 1797.00,1203.00 1795.25,1201.95 1792.80,1201.60"/>
    </edge>
    <edge id=":gneJ20_1" function="internal">
        <lane id=":gneJ20_1_0" index="0" speed="13.89" length="14.40" shape="1798.40,1207.20 1798.40,1192.80"/>
    </edge>
    <edge id=":gneJ20_2" function="internal">
        <lane id=":gneJ20_2_0" index="0" speed="8.00" length="5.93" shape="1798.40,1207.20 1798.95,1203.35 1800.00,1201.60"/>
    </edge>
    <edge id=":gneJ20_12" function="internal">
        <lane id=":gneJ20_12_0" index="0" speed="8.00" length="8.26" shape="1800.00,1201.60 1800.60,1200.60 1803.35,1198.95 1807.20,1198.40"/>
    </edge>
    <edge id=":gneJ20_3" function="internal">
        <lane id=":gneJ20_3_0" index="0" speed="6.51" length="9.03" shape="1807.20,1201.60 1804.75,1201.95 1803.00,1203.00 1801.95,1204.75 1801.60,1207.20"/>
    </edge>
    <edge id=":gneJ20_4" function="internal">
        <lane id=":gneJ20_4_0" index="0" speed="13.89" length="14.40" shape="1807.20,1201.60 1792.80,1201.60"/>
    </edge>
    <edge id=":gneJ20_5" function="internal">
        <lane id=":gneJ20_5_0" index="0" speed="8.00" length="5.93" shape="1807.20,1201.60 1803.35,1201.05 1801.60,1200.00"/>
    </edge>
    <edge id=":gneJ20_13" function="internal">
        <lane id=":gneJ20_13_0" index="0" speed="8.00" length="8.26" shape="1801.60,1200.00 1800.60,1199.40 1798.95,1196.65 1798.40,1192.80"/>
    </edge>
    <edge id=":gneJ20_6" function="internal">
        <lane id=":gneJ20_6_0" index="0" speed="6.51" length="9.03" shape="1801.60,1192.80 1801.95,1195.25 1803.00,1197.00 1804.75,1198.05 1807.20,1198.40"/>
    </edge>
    <edge id=":gneJ20_7" function="internal">
        <lane id=":gneJ20_7_0" index="0" speed="13.89" length="14.40" shape="1801.60,1192.80 1801.60,1207.20"/>
    </edge>
    <edge id=":gneJ20_8" function="internal">
        <lane id=":gneJ20_8_0" index="0" speed="8.00" length="5.93" shape="1801.60,1192.80 1801.05,1196.65 1800.00,1198.40"/>
    </edge>
    <edge id=":gneJ20_14" function="internal">
        <lane id=":gneJ20_14_0" index="0" speed="8.00" length="8.26" shape="1800.00,1198.40 1799.40,1199.40 1796.65,1201.05 1792.80,1201.60"/>
    </edge>
    <edge id=":gneJ20_9" function="internal">
        <lane id=":gneJ20_9_0" index="0" speed="6.51" length="9.03" shape="1792.80,1198.40 1795.25,1198.05 1797.00,1197.00 1798.05,1195.25 1798.40,1192.80"/>
    </edge>
    <edge id=":gneJ20_10" function="internal">
        <lane id=":gneJ20_10_0" index="0" speed="13.89" length="14.40" shape="1792.80,1198.40 1807.20,1198.40"/>
    </edge>
    <edge id=":gneJ20_11" function="internal">
        <lane id=":gneJ20_11_0" index="0" speed="8.00" length="5.93" shape="1792.80,1198.40 1796.65,1198.95 1798.40,1200.00"/>
    </edge>
    <edge id=":gneJ20_15" function="internal">
        <lane id=":gneJ20_15_0" index="0" speed="8.00" length="8.26" shape="1798.40,1200.00 1799.40,1200.60 1801.05,1203.35 1801.60,1207.20"/>
    </edge>
    <edge id=":gneJ21_0" function="internal">
        <lane id=":gneJ21_0_0" index="0" speed="13.89" length="14.40" shape="1498.40,1007.20 1498.40,992.80"/>
    </edge>
    <edge id=":gneJ21_1" function="internal">
        <lane id=":gneJ21_1_0" index="0" speed="8.00" length="5.93" shape="1498.40,1007.20 1498.95,1003.35 1500.00,1001.60"/>
    </edge>
    <edge id=":gneJ21_6" function="internal">
        <lane id=":gneJ21_6_0" index="0" speed="8.00" length="8.26" shape="1500.00,1001.60 1500.60,1000.60 1503.35,998.95 1507.20,998.40"/>
    </edge>
    <edge id=":gneJ21_2" function="internal">
        <lane id=":gneJ21_2_0" index="0" speed="6.51" length="9.03" shape="1507.20,1001.60 1504.75,1001.95 1503.00,1003.00 1501.95,1004.75 1501.60,1007.20"/>
    </edge>
    <edge id=":gneJ21_3" function="internal">
        <lane id=":gneJ21_3_0" index="0" speed="8.00" length="14.19" shape="1507.20,1001.60 1503.35,1001.05 1500.60,999.40 1498.95,996.65 1498.40,992.80"/>
    </edge>
    <edge id=":gneJ21_4" function="internal">
        <lane id=":gneJ21_4_0" index="0" speed="6.51" length="9.03" shape="1501.60,992.80 1501.95,995.25 1503.00,997.00 1504.75,998.05 1507.20,998.40"/>
    </edge>
    <edge id=":gneJ21_5" function="internal">
        <lane id=":gneJ21_5_0" index="0" speed="13.89" length="14.40" shape="1501.60,992.80 1501.60,1007.20"/>
    </edge>
    <edge id=":gneJ22_0" function="internal">
        <lane id=":gneJ22_0_0" index="0" speed="6.08" length="7.74" shape="1498.40,903.20 1498.70,901.10 1499.60,899.60 1501.10,898.70 1503.20,898.40"/>
    </edge>
    <edge id=":gneJ22_1" function="internal">
        <lane id=":gneJ22_1_0" index="0" speed="3.90" length="2.58" shape="1503.20,901.60 1502.50,901.70 1502.00,902.00 1501.70,902.50 1501.60,903.20"/>
    </edge>
    <edge id=":gneJ23_0" function="internal">
        <lane id=":gneJ23_0_0" index="0" speed="6.51" length="9.03" shape="1598.40,907.20 1598.05,904.75 1597.00,903.00 1595.25,901.95 1592.80,901.60"/>
    </edge>
    <edge id=":gneJ23_1" function="internal">
        <lane id=":gneJ23_1_0" index="0" speed="8.00" length="14.19" shape="1598.40,907.20 1598.95,903.35 1600.60,900.60 1603.35,898.95 1607.20,898.40"/>
    </edge>
    <edge id=":gneJ23_2" function="internal">
        <lane id=":gneJ23_2_0" index="0" speed="6.51" length="9.03" shape="1607.20,901.60 1604.75,901.95 1603.00,903.00 1601.95,904.75 1601.60,907.20"/>
    </edge>
    <edge id=":gneJ23_3" function="internal">
        <lane id=":gneJ23_3_0" index="0" speed="13.89" length="14.40" shape="1607.20,901.60 1592.80,901.60"/>
    </edge>
    <edge id=":gneJ23_4" function="internal">
        <lane id=":gneJ23_4_0" index="0" speed="13.89" length="14.40" shape="1592.80,898.40 1607.20,898.40"/>
    </edge>
    <edge id=":gneJ23_5" function="internal">
        <lane id=":gneJ23_5_0" index="0" speed="8.00" length="5.93" shape="1592.80,898.40 1596.65,898.95 1598.40,900.00"/>
    </edge>
    <edge id=":gneJ23_6" function="internal">
        <lane id=":gneJ23_6_0" index="0" speed="8.00" length="8.26" shape="1598.40,900.00 1599.40,900.60 1601.05,903.35 1601.60,907.20"/>
    </edge>
    <edge id=":gneJ24_0" function="internal">
        <lane id=":gneJ24_0_0" index="0" speed="6.51" length="9.03" shape="1698.40,907.20 1698.05,904.75 1697.00,903.00 1695.25,901.95 1692.80,901.60"/>
    </edge>
    <edge id=":gneJ24_1" function="internal">
        <lane id=":gneJ24_1_0" index="0" speed="8.00" length="14.19" shape="1698.40,907.20 1698.95,903.35 1700.60,900.60 1703.35,898.95 1707.20,898.40"/>
    </edge>
    <edge id=":gneJ24_2" function="internal">
        <lane id=":gneJ24_2_0" index="0" speed="6.51" length="9.03" shape="1707.20,901.60 1704.75,901.95 1703.00,903.00 1701.95,904.75 1701.60,907.20"/>
    </edge>
    <edge id=":gneJ24_3" function="internal">
        <lane id=":gneJ24_3_0" index="0" speed="13.89" length="14.40" shape="1707.20,901.60 1692.80,901.60"/>
    </edge>
    <edge id=":gneJ24_4" function="internal">
        <lane id=":gneJ24_4_0" index="0" speed="13.89" length="14.40" shape="1692.80,898.40 1707.20,898.40"/>
    </edge>
    <edge id=":gneJ24_5" function="internal">
        <lane id=":gneJ24_5_0" index="0" speed="8.00" length="5.93" shape="1692.80,898.40 1696.65,898.95 1698.40,900.00"/>
    </edge>
    <edge id=":gneJ24_6" function="internal">
        <lane id=":gneJ24_6_0" index="0" speed="8.00" length="8.26" shape="1698.40,900.00 1699.40,900.60 1701.05,903.35 1701.60,907.20"/>
    </edge>
    <edge id=":gneJ25_0" function="internal">
        <lane id=":gneJ25_0_0" index="0" speed="6.51" length="9.03" shape="1798.40,907.20 1798.05,904.75 1797.00,903.00 1795.25,901.95 1792.80,901.60"/>
    </edge>
    <edge id=":gneJ25_1" function="internal">
        <lane id=":gneJ25_1_0" index="0" speed="8.00" length="14.19" shape="1798.40,907.20 1798.95,903.35 1800.60,900.60 1803.35,898.95 1807.20,898.40"/>
    </edge>
    <edge id=":gneJ25_2" function="internal">
        <lane id=":gneJ25_2_0" index="0" speed="6.51" length="9.03" shape="1807.20,901.60 1804.75,901.95 1803.00,903.00 1801.95,904.75 1801.60,907.20"/>
    </edge>
    <edge id=":gneJ25_3" function="internal">
        <lane id=":gneJ25_3_0" index="0" speed="13.89" length="14.40" shape="1807.20,901.60 1792.80,901.60"/>
    </edge>
    <edge id=":gneJ25_4" function="internal">
        <lane id=":gneJ25_4_0" index="0" speed="13.89" length="14.40" shape="1792.80,898.40 1807.20,898.40"/>
    </edge>
    <edge id=":gneJ25_5" function="internal">
        <lane id=":gneJ25_5_0" index="0" speed="8.00" length="5.93" shape="1792.80,898.40 1796.65,898.95 1798.40,900.00"/>
    </edge>
    <edge id=":gneJ25_6" function="internal">
        <lane id=":gneJ25_6_0" index="0" speed="8.00" length="8.26" shape="1798.40,900.00 1799.40,900.60 1801.05,903.35 1801.60,907.20"/>
    </edge>
    <edge id=":gneJ26_0" function="internal">
        <lane id=":gneJ26_0_0" index="0" speed="3.90" length="2.58" shape="1898.40,903.20 1898.30,902.50 1898.00,902.00 1897.50,901.70 1896.80,901.60"/>
    </edge>
    <edge id=":gneJ26_1" function="internal">
        <lane id=":gneJ26_1_0" index="0" speed="6.08" length="7.74" shape="1896.80,898.40 1898.90,898.70 1900.40,899.60 1901.30,901.10 1901.60,903.20"/>
    </edge>
    <edge id=":gneJ27_0" function="internal">
        <lane id=":gneJ27_0_0" index="0" speed="6.51" length="9.03" shape="1898.40,1007.20 1898.05,1004.75 1897.00,1003.00 1895.25,1001.95 1892.80,1001.60"/>
    </edge>
    <edge id=":gneJ27_1" function="internal">
        <lane id=":gneJ27_1_0" index="0" speed="13.89" length="14.40" shape="1898.40,1007.20 1898.40,992.80"/>
    </edge>
    <edge id=":gneJ27_2" function="internal">
        <lane id=":gneJ27_2_0" index="0" speed="13.89" length="14.40" shape="1901.60,992.80 1901.60,1007.20"/>
    </edge>
    <edge id=":gneJ27_3" function="internal">
        <lane id=":gneJ27_3_0" index="0" speed="8.00" length="5.93" shape="1901.60,992.80 1901.05,996.65 1900.00,998.40"/>
    </edge>
    <edge id=":gneJ27_6" function="internal">
        <lane id=":gneJ27_6_0" index="0" speed="8.00" length="8.26" shape="1900.00,998.40 1899.40,999.40 1896.65,1001.05 1892.80,1001.60"/>
    </edge>
    <edge id=":gneJ27_4" function="internal">
        <lane id=":gneJ27_4_0" index="0" speed="6.51" length="9.03" shape="1892.80,998.40 1895.25,998.05 1897.00,997.00 1898.05,995.25 1898.40,992.80"/>
    </edge>
    <edge id=":gneJ27_5" function="internal">
        <lane id=":gneJ27_5_0" index="0" speed="8.00" length="14.19" shape="1892.80,998.40 1896.65,998.95 1899.40,1000.60 1901.05,1003.35 1901.60,1007.20"/>
    </edge>
    <edge id=":gneJ28_0" function="internal">
        <lane id=":gneJ28_0_0" index="0" speed="6.51" length="9.03" shape="1798.40,1007.20 1798.05,1004.75 1797.00,1003.00 1795.25,1001.95 1792.80,1001.60"/>
    </edge>
    <edge id=":gneJ28_1" function="internal">
        <lane id=":gneJ28_1_0" index="0" speed="13.89" length="14.40" shape="1798.40,1007.20 1798.40,992.80"/>
    </edge>
    <edge id=":gneJ28_2" function="internal">
        <lane id=":gneJ28_2_0" index="0" speed="8.00" length="5.93" shape="1798.40,1007.20 1798.95,1003.35 1800.00,1001.60"/>
    </edge>
    <edge id=":gneJ28_12" function="internal">
        <lane id=":gneJ28_12_0" index="0" speed="8.00" length="8.26" shape="1800.00,1001.60 1800.60,1000.60 1803.35,998.95 1807.20,998.40"/>
    </edge>
    <edge id=":gneJ28_3" function="internal">
        <lane id=":gneJ28_3_0" index="0" speed="6.51" length="9.03" shape="1807.20,1001.60 1804.75,1001.95 1803.00,1003.00 1801.95,1004.75 1801.60,1007.20"/>
    </edge>
    <edge id=":gneJ28_4" function="internal">
        <lane id=":gneJ28_4_0" index="0" speed="13.89" length="14.40" shape="1807.20,1001.60 1792.80,1001.60"/>
    </edge>
    <edge id=":gneJ28_5" function="internal">
        <lane id=":gneJ28_5_0" index="0" speed="8.00" length="5.93" shape="1807.20,1001.60 1803.35,1001.05 1801.60,1000.00"/>
    </edge>
    <edge id=":gneJ28_13" function="internal">
        <lane id=":gneJ28_13_0" index="0" speed="8.00" length="8.26" shape="1801.60,1000.00 1800.60,999.40 1798.95,996.65 1798.40,992.80"/>
    </edge>
    <edge id=":gneJ28_6" function="internal">
        <lane id=":gneJ28_6_0" index="0" speed="6.51" length="9.03" shape="1801.60,992.80 1801.95,995.25 1803.00,997.00 1804.75,998.05 1807.20,998.40"/>
    </edge>
    <edge id=":gneJ28_7" function="internal">
        <lane id=":gneJ28_7_0" index="0" speed="13.89" length="14.40" shape="1801.60,992.80 1801.60,1007.20"/>
    </edge>
    <edge id=":gneJ28_8" function="internal">
        <lane id=":gneJ28_8_0" index="0" speed="8.00" length="5.93" shape="1801.60,992.80 1801.05,996.65 1800.00,998.40"/>
    </edge>
    <edge id=":gneJ28_14" function="internal">
        <lane id=":gneJ28_14_0" index="0" speed="8.00" length="8.26" shape="1800.00,998.40 1799.40,999.40 1796.65,1001.05 1792.80,1001.60"/>
    </edge>
    <edge id=":gneJ28_9" function="internal">
        <lane id=":gneJ28_9_0" index="0" speed="6.51" length="9.03" shape="1792.80,998.40 1795.25,998.05 1797.00,997.00 1798.05,995.25 1798.40,992.80"/>
    </edge>
    <edge id=":gneJ28_10" function="internal">
        <lane id=":gneJ28_10_0" index="0" speed="13.89" length="14.40" shape="1792.80,998.40 1807.20,998.40"/>
    </edge>
    <edge id=":gneJ28_11" function="internal">
        <lane id=":gneJ28_11_0" index="0" speed="8.00" length="5.93" shape="1792.80,998.40 1796.65,998.95 1798.40,1000.00"/>
    </edge>
    <edge id=":gneJ28_15" function="internal">
        <lane id=":gneJ28_15_0" index="0" speed="8.00" length="8.26" shape="1798.40,1000.00 1799.40,1000.60 1801.05,1003.35 1801.60,1007.20"/>
    </edge>
    <edge id=":gneJ29_0" function="internal">
        <lane id=":gneJ29_0_0" index="0" speed="6.51" length="9.03" shape="1698.40,1007.20 1698.05,1004.75 1697.00,1003.00 1695.25,1001.95 1692.80,1001.60"/>
    </edge>
    <edge id=":gneJ29_1" function="internal">
        <lane id=":gneJ29_1_0" index="0" speed="13.89" length="14.40" shape="1698.40,1007.20 1698.40,992.80"/>
    </edge>
    <edge id=":gneJ29_2" function="internal">
        <lane id=":gneJ29_2_0" index="0" speed="8.00" length="5.93" shape="1698.40,1007.20 1698.95,1003.35 1700.00,1001.60"/>
    </edge>
    <edge id=":gneJ29_12" function="internal">
        <lane id=":gneJ29_12_0" index="0" speed="8.00" length="8.26" shape="1700.00,1001.60 1700.60,1000.60 1703.35,998.95 1707.20,998.40"/>
    </edge>
    <edge id=":gneJ29_3" function="internal">
        <lane id=":gneJ29_3_0" index="0" speed="6.51" length="9.03" shape="1707.20,1001.60 1704.75,1001.95 1703.00,1003.00 1701.95,1004.75 1701.60,1007.20"/>
    </edge>
    <edge id=":gneJ29_4" function="internal">
        <lane id=":gneJ29_4_0" index="0" speed="13.89" length="14.40" shape="1707.20,1001.60 1692.80,1001.60"/>
    </edge>
    <edge id=":gneJ29_5" function="internal">
        <lane id=":gneJ29_5_0" index="0" speed="8.00" length="5.93" shape="1707.20,1001.60 1703.35,1001.05 1701.60,1000.00"/>
    </edge>
    <edge id=":gneJ29_13" function="internal">
        <lane id=":gneJ29_13_0" index="0" speed="8.00" length="8.26" shape="1701.60,1000.00 1700.60,999.40 1698.95,996.65 1698.40,992.80"/>
    </edge>
    <edge id=":gneJ29_6" function="internal">
        <lane id=":gneJ29_6_0" index="0" speed="6.51" length="9.03" shape="1701.60,992.80 1701.95,995.25 1703.00,997.00 1704.75,998.05 1707.20,998.40"/>
    </edge>
    <edge id=":gneJ29_7" function="internal">
        <lane id=":gneJ29_7_0" index="0" speed="13.89" length="14.40" shape="1701.60,992.80 1701.60,1007.20"/>
    </edge>
    <edge id=":gneJ29_8" function="internal">
        <lane id=":gneJ29_8_0" index="0" speed="8.00" length="5.93" shape="1701.60,992.80 1701.05,996.65 1700.00,998.40"/>
    </edge>
    <edge id=":gneJ29_14" function="internal">
        <lane id=":gneJ29_14_0" index="0" speed="8.00" length="8.26" shape="1700.00,998.40 1699.40,999.40 1696.65,1001.05 1692.80,1001.60"/>
    </edge>
    <edge id=":gneJ29_9" function="internal">
        <lane id=":gneJ29_9_0" index="0" speed="6.51" length="9.03" shape="1692.80,998.40 1695.25,998.05 1697.00,997.00 1698.05,995.25 1698.40,992.80"/>
    </edge>
    <edge id=":gneJ29_10" function="internal">
        <lane id=":gneJ29_10_0" index="0" speed="13.89" length="14.40" shape="1692.80,998.40 1707.20,998.40"/>
    </edge>
    <edge id=":gneJ29_11" function="internal">
        <lane id=":gneJ29_11_0" index="0" speed="8.00" length="5.93" shape="1692.80,998.40 1696.65,998.95 1698.40,1000.00"/>
    </edge>
    <edge id=":gneJ29_15" function="internal">
        <lane id=":gneJ29_15_0" index="0" speed="8.00" length="8.26" shape="1698.40,1000.00 1699.40,1000.60 1701.05,1003.35 1701.60,1007.20"/>
    </edge>
    <edge id=":gneJ3_0" function="internal">
        <lane id=":gneJ3_0_0" index="0" speed="6.51" length="9.03" shape="1698.40,1207.20 1698.05,1204.75 1697.00,1203.00 1695.25,1201.95 1692.80,1201.60"/>
    </edge>
    <edge id=":gneJ3_1" function="internal">
        <lane id=":gneJ3_1_0" index="0" speed="13.89" length="14.40" shape="1698.40,1207.20 1698.40,1192.80"/>
    </edge>
    <edge id=":gneJ3_2" function="internal">
        <lane id=":gneJ3_2_0" index="0" speed="8.00" length="5.93" shape="1698.40,1207.20 1698.95,1203.35 1700.00,1201.60"/>
    </edge>
    <edge id=":gneJ3_12" function="internal">
        <lane id=":gneJ3_12_0" index="0" speed="8.00" length="8.26" shape="1700.00,1201.60 1700.60,1200.60 1703.35,1198.95 1707.20,1198.40"/>
    </edge>
    <edge id=":gneJ3_3" function="internal">