<additional>
      <vType id="bus" vClass="bus" emissionClass="HBEFA3/PC_G_EU4" guiShape="bus" width="1.80" height="1.50"/>
</additional>